RpB3ps813QS592/kLc8eaDl3g1JOR0duDYapd5QrdARwbDY/2UX/iCqYZzAHa70Y3VNj2S/HWb7P
iRxsXb6LOM5C5eDaH6qGzXS0ToZfjKisErFJxLlHNPNYMqvnVpcuVy3x24kH0+WuR/aImYpfWpb1
INqxv9qplah7xJuUJpr/vZvHCwMjBoCr5/DTxGqg8z9sheUTN7zyIlxvwmUwMPM/ym+zegGjqGTt
++YzvpixTwHxr4TnsVdl6vT0TK+G13A0cwOeBFsw5f8arWibeXX0qEFyDfKSF/USxNJcSETXc08C
67184jy0sweFIE6OVvqfU856sE/RDujBcqxHMQsaWvjwYEb+KBFk0lqyh26laJyvO5l69eQjWuXr
5+iHHC9jm2PuBfki/HYjM8Z79V8UjLyJanRZFXjkXkK9AMYwQk6tOWsK/DsTJY9qyj0emEyx7WHA
c5IF9qNnTmcI5iRWnU6WuXN3aqU/V7FJcyUNhKOP6DcJB5KsGHGOJXDXiTHC5isx5lntrgl626p8
Zxa2T6/OEA0Y4FwDrY8i1L1JxN0KKve8Cate8qGwHcQ1gLK08mNfgpo8ndujRI/Ah6uWI5Pcpfl+
xInjvfccXbWBWpYAeBVNAJD7+e1w/vBJfNmju2AHMxQz5r5A5ERqqtZ0AjUU8x7nlV9maIp/J7RM
SPmUj6+c5ONBYBamCle41KU1EDIOAkocYsO0HnRERpIbauYnCK4DQ1WXMqQqoTrl0hbpCQvptaGU
8AmVpgrmHiOZnueIZ9mLAL2jcWutcVOalJWQcew4JxKKcqyZf19S9DFaTFuOLO4YJltWFSeKE5+1
JEB77IDhhQHSyI8x6xi5XzuSYDhbRAnzZPXfrNkID+MPsKNeV+6Su8Z4DpyGVf+mPgYqro+3PeQy
f7CB2kc41txmR2297uZAWiVbk6rFstKF7rbILJSYu4pTMPfJL2rzhwmm41JGcMu2EgoGw/XczQfK
QgwfVuzeNDO46azVkgYwmN6E+SS/9GoV1tJeUvCUOtY4BJfDFP3YkJEc7vYeikQ7p9Jv1/a0RXal
isxrHRG7LQot+PMTI3xPckhEwF4DLw+ieEB00X4vzzOrrWFTiowQGSmIrGrIBua0AGh3GuuORksN
8AezKA2yIOhI8vnmFEoO2Dtct5BmbPAUqrImWt7YmqIphuFhlMe9mr1ctjxpHRWq8OI7tMnet6OO
wInqTcDFhfbaDXssWLhNYDIWbc5jx3lUGFIJPw+Uu5MhtieJ1hmnIPcIbnCErgWkP5w1P/C4LAFx
LnP0d7dumfg/8EpvSTqzoUbmHnuuFhsFOXBpG/MT3Dn81l28ikyQKtHvCysx85HqBP7toNhkak9R
O3EBLVCirHWZXX2a+B/7OeN/jC5jVeR3ajB7tan57lzYzvdDvfmwecR2ySLPwa607kf5s1ZUOFvP
GC3No2d/qvplMgk1Z07iRl4M8CvtEnQZY9a8YKN7XQV+QtdiAv9td7Nr8193JPmaVEA5gc/LW/z5
M02jJ8rwI4y7phsw4qkVbqDCAI/nCvP0RnouYBwUA0IMx28nvcx01ZIs2SYfzMES44IktoJeZCNl
WowN/w0J5g47ZcaMaW1g8jsCJLJx4DAlukWCkvVByxiK2PYKv45Sk/2cxA9jezeKI54GD+EBkvSt
0P83AeFJvqlAfOjZ8tstWVv/QVljsOTbAmRMdvaPwskqIBxZuWDwE9GWWNLgKF4RueryShjE/8JI
I2O+dO2UsF7XM7uFiV4lAhlJkQ198ALty3oPLqdhNDopsueBP0JJitGWboIhgWZChNHl7aiZcqnJ
azRoTKyWgwZMEEsJqoaCWd63DnCnx3bwc+r317MlD2ORWqymHxrHpz9SraFdIuKKPfAN+7u0GV/G
t7C+UibagYE4raCZ8EnSVYtGXdkG5mRcY6uH2qh6VgAEIMzZ/8YgeORcDLFdNIZw2Y19eXZej2im
+XtsHmFWPue0gUMq44632YE2edla6IvnAtvLqrOn+yzP6V4Hafa844kAe/TfGWqv0EYo64Q6nqlj
RUtPve+7r8ofTRi6QVxFmDkC0pwM2DNnxwRzAErhwB3P2AsnEEhGusGzjkxVs04WrwL9q9gZPGGS
AM6WrrCgnXl4zA3Rkm3hec9qBags2NnegyEacP1ZfSQ6adTQLASqCbCW9oUnNZtECf5NJdwGiBEM
xSO8wtDwe6lrQx/tSGSecf09xEPhEo066HX2shANrc/lIzhfnCNMnwPfQcNtAFRuV3x0hhVG3zzu
3riCd8Zbpy0j/k4pyk2UAW0DMIkRYnz6K5Przmx9VsLsop4VqxxfJBMZalosLdD6Bikvwh8wfYW2
Ovfq0g6dyUMByvMwB03qPLSauXLuqhZcLZQmueKNlAnnXHsh+MABw3Yo/b8P2QZ2XFJE68lgeRbd
+RVJLBO7o2lS5Au1f2yD6LCNMP9QH3BWSSxfLYCFmjwn/ev7GNYDN/AAF+5koy1CSUn+7GzoAgJJ
jviZAENleOxextzmXxYFlF+KPYcenrHbJ/xN1zHDF/srLpYjmEozs8V1a6BvPR8bb8Rte7Q5Zpim
p6oWSUazMF5rKqzO0KYrsSD+DOyjDvQFGHwn6E6ePvKrY3OE6bfpP8RpGIZtGYlJadb+WA41HHn3
1Ojn3qNe8VtkfLlXJE+KgCxBYc1Uygb0RqoLPpgVRqQ2NRWurBhwLh+WT0Dgaui6Oxm18KiHoWh1
HApjGdxSwaORPoS9UgwLgR+wO+ica5HngxHX7l605SCm8ibTvJUwVLQvl2CpraBoKGD6KG5RzR9H
rVtaUOJHOWdgLx6IVUjOiXSp9o33xwHZZPX7+kLqT/dxl7g966km0+AZj6sLjKi9dDIQXVy12reS
7CbAhMk1CHmJz13zEkyePX8rNGf0V7tf76PaKPy0AwduA/W6KtjD+jibDeb2/jiEQQ245DRbFJnO
Uv+O5TmNkqYaBZDCYF8YfIRjWGgKkvBKk5OmAWSZ/DXr7KFzAjo8k1/+GE9olrXG0x7rfLngcCZg
B3r7bE7eoQP0bJuabdNiUEteLP+JgUFS9lIm5XCsUPNUVtAgSOhyJi0YJbPZeqBv1Zr/uDfDjFwt
2I57jpG4Vin6i/1EOQpWLKGt36Zm819SVQYUT3bhl1s8DBLUiRY0GGuzwGJ+27d70Svb2RvElQ2g
KklsqpQEKU6W18BNPizlhCh1XkZj4iCtDqlsj0c74qfkPVQxaKOUg5iTFOiLuGt1fizR5cF+JV/B
xHjAdHY1ZDz+18Pia8+FT8c0UxR8FEvJENhQ07w3hS4q7NgNgnFfiF+Fkufrfyz9dZH0ODOG4F8H
Rci2ZSn29KiKjbbpnjoI9iiZDIHTi5eY1ruMqThIXgih0BCAWYhQTy8yXUYIn+Zv2V0ILdhTtcKa
lPc8KgLR7XAAqbraFbG2NNPlRw4Xhjj34y+Fezjwqz6uodNuzwnDfRA8xfLvt0wcYhQZAFIJ9kC0
93o7x2p3v9p3Rgy4FVplvlak1pMyLGeuLeF5DrBxZ0gkEgIuilsDqeI/3cPdgEMVuwKSnVtLcnq1
MjNTgaDVB9U9dVtsAX+7Fv86eub3EwDRoq23cDKXkhUncmboe18aksC3dDCDy3Q8JNAFRoZzTqHd
wsMrqYA3FJQmLxLfcwKtkUuyILp1iZ5HszXEvrSR5hEIMhi5H8f1pcs6IxIXJ5k43FNIBHik89tE
m78YQTzYPXOVEQfALX7wzeNwJVQuuaeaGb8U4tCU1ydAM/arGpnjhcjDp2OlVO7I6KaSwF0yOmJI
wHR6l7XQ+mgD7vXO5sVRky/mCOTGp3WvpBneoJiIVGb4r95M+m57iI8zZ/gaRt/ColSmQqrAhHoT
tiBnNEw9P81Vw4ITCdfsLU25+Dq/pXAoCZZsMjrmRn/DMRd6UiXohnoYJmOsBMYrff+rRu1gjAi7
+4sWXUSQRn0xBgeKGE1Ll6AZlUTuaS2JbY2Js3w93nKCCt6CEnMt+p0WYy6qF0ywG8NR4/Lx6pc2
8sWUc2/Hoau73tfIcoX+hMqZojL6yeUDihdyyzE7xdyXxyPjX9AsiwgEgA1Zi84ud6+BrcmLZeKU
wWxW24vtRLP+eiedAGhpt/sc3ZXRA1GMvVMvPnZwx5o9bdM9WK80iX5x7+YQgNFwxbJQToo1JXX5
M9xGil/8xJxfvZy+uwGnV/xWHypmOdqmaQrBxb2MVFLGKUoL70PBjJN2hs4TSApv9WKe15OdOsSc
4HSI17D1+Jmx3ziuTTEnCp86nE26ibSPHMTve2StkR5pOBrR2W0TqqJDJHL5YpV3UHKXOeRyc8OL
78FCq65CWBtJ4Zievi665Vd1jiRyDTw2b4CSjO6U1uGBxSAu0I38/jeKmJRk4NqbU42dBlhWR3SC
xWnf7hbUTIs6ve2tj3XyeDfeg3+CaDIEfAeYqh8WTFK0zLl84ItoCjzAd+aPVvZajOoQvrf39D83
8Vz5qY2FcWVefx9MOJSTJc6YV3VYy57gWM843UmyHBfPuFAGwNdm/3PEG1mGwHT+Qcdtt7+RNAiG
yVM+NGAP7nUAub3i+O76KhROxdeLNmWI7OzpfWYTBOleANKWgWPS7pGleS0TmYxdLmQTOZeOyyJr
6+/rfTBz9ghtjoLckuxHgNyRLQ+0sJ4I+2OzPrBmRrwrvmImdhsuY7wO+EIr6QpfVsKOjSKGM+fa
kphGqzoos66wjvljw/BcAqsFGbRd3jLYUFU1bcNgaCGjZgpq9Xj8kZCkrVTWmdldYisdXLgNFbAt
j8yBy3gEqlsvgZmCD3zdEOf/70vw3Ff4Ep7pGc5ysk4zTuIXm9yqIToDEEsiCqJGL6gpTR3Z3lxF
RshphZUK0ZQzi/EsnfL6LXXpS6ntehMX2hw8GMP3v78Nhl+LdanwzzpZJwxhT29iFHTHbAOjCKCs
qp7ApYAaJt8UrCJu1yfC7III+RQSR3Ezvfrw7OcMZbwjIdSWNe5qihwrLx93aBqEsyQOPmmbnXTs
b7ciOENo8WgJL8dXAo4l9v+1v+eNWqQYyzUemyHjeBC4bzsopcY/hIGFzBXyCuRnQNbU6qRrKG0u
ASgmz1I94zKOp1LVbSrc3Aq5GaUFq7lfJ87GFIBgEIppsdPTftyet3QRdQWG9iqribx3fVn+umwg
T5TFYO5s/wDzOgju3gUmPhsWBjuYsNqAF4TgKeByFsENDg2BKanJZy35zld6hS18iSj9EHu5hP+o
DKEgSqW/qLKBDa8A211JS+pTt815z8lw5HRDkk8zVtGxQdatYVBxktasNNwDbqO9dRCLD5tdVBdn
qrnMR/IWDLQLw+lTCW+X4WrSt8031P/6NXm2/aOYyJyU1Dgd+jgpU3lKvdaun47UgRyBZlZ1WW2D
M73wQSqEUxDPy7rMFt5yvoFxMpdFEQO2Pj9fwUuLe5Zf7eP7oIG4oNEcukQkbfeBfxt276i/TA27
Tlx4nW86s0A+3cyGTTb4pkfyILtTR0x789f/soen+Q+lAVRCJjSFgA84Q4aGrsrjM8F3pEj8YGQn
pZTfXRSimPGuHNVomwB+dVLGvVdS+YwJjb60vxYcYMfM9p45YkzJ9RBwMJ8tO3DTD+mzagWvDqvh
2sqd4SEwOjd6gpl1hnesbpAPzkGKDhOAd5Pxjf6gmpmPnsalDmlbaKduqDknymY0CxXdHLnvT8D5
ZeV1tmjlJ7i/sB3duRzgQhs4f/lU8yjcCGcow0oVLlC101W8i8ap6aqZeT/XyEopepl98vY=